data_ITW

_audit_creation_method RASPA-1.0
_audit_creation_date 2022-4-23
_audit_author_name 'Pablo_Romero'

_cell_length_a    10.450
_cell_length_b    15.028
_cell_length_c    8.954
_cell_angle_alpha 90.000
_cell_angle_beta  105.640
_cell_angle_gamma 90.000
_cell_volume      1406.159

_symmetry_cell_setting          monoclinic
_symmetry_space_group_name_Hall 'P 1'
_symmetry_space_group_name_H-M  'P 1'
_symmetry_Int_Tables_number     1
_symmetry_equiv_pos_as_xyz 'x,y,z'

loop_
_atom_site_label
_atom_site_type_symbol
_atom_site_fract_x
_atom_site_fract_y
_atom_site_fract_z
_atom_site_charge
O         O     0.500     0.227     0.000    -0.393
O         O     0.309     0.164     0.771    -0.393
O         O     0.347     0.337     0.801    -0.393
O         O     0.250     0.250     0.000    -0.393
O         O     0.437     0.390     0.269    -0.393
O         O     0.342     0.366     0.510    -0.393
O         O     0.258     0.500     0.320    -0.393
O         O     0.363     0.500     0.704    -0.393
Si        Si     0.352     0.244     0.894     0.786
Si        Si     0.307     0.398     0.332     0.786
Si        Si     0.404     0.398     0.686     0.786
O         O     0.691     0.164     0.229    -0.393
O         O     0.653     0.337     0.199    -0.393
O         O     0.750     0.250     0.000    -0.393
O         O     0.563     0.390     0.731    -0.393
O         O     0.658     0.366     0.490    -0.393
O         O     0.742     0.500     0.680    -0.393
O         O     0.637     0.500     0.296    -0.393
Al1        Al     0.648     0.244     0.106     0.786
Si        Si     0.693     0.398     0.668     0.786
Si        Si     0.596     0.398     0.314     0.786
O         O     0.500     0.773     0.000    -0.393
O         O     0.691     0.836     0.229    -0.393
O         O     0.653     0.663     0.199    -0.393
O         O     0.750     0.750     0.000    -0.393
O         O     0.563     0.611     0.731    -0.393
O         O     0.658     0.634     0.490    -0.393
Si        Si     0.648     0.755     0.106     0.786
Si        Si     0.693     0.602     0.668     0.786
Si        Si     0.596     0.602     0.314     0.786
O         O     0.309     0.836     0.771    -0.393
O         O     0.347     0.663     0.801    -0.393
O         O     0.250     0.750     0.000    -0.393
O         O     0.437     0.611     0.269    -0.393
O         O     0.342     0.634     0.510    -0.393
Si        Si     0.352     0.755     0.894     0.786
Si        Si     0.307     0.602     0.332     0.786
Si        Si     0.404     0.602     0.686     0.786
O         O     0.000     0.727     0.000    -0.393
O         O     0.809     0.664     0.771    -0.393
O         O     0.847     0.837     0.801    -0.393
O         O     0.937     0.889     0.269    -0.393
O         O     0.842     0.866     0.510    -0.393
O         O     0.758     0.000     0.320    -0.393
O         O     0.863     0.000     0.704    -0.393
Si        Si     0.852     0.745     0.894     0.786
Si        Si     0.807     0.898     0.332     0.786
Si        Si     0.904     0.898     0.686     0.786
O         O     0.191     0.664     0.229    -0.393
O         O     0.153     0.837     0.199    -0.393
O         O     0.063     0.889     0.731    -0.393
O         O     0.158     0.866     0.490    -0.393
O         O     0.242     0.000     0.680    -0.393
O         O     0.137     0.000     0.296    -0.393
Si        Si     0.148     0.745     0.106     0.786
Si        Si     0.193     0.898     0.668     0.786
Si        Si     0.096     0.898     0.314     0.786
O         O     0.000     0.273     0.000    -0.393
O         O     0.191     0.336     0.229    -0.393
O         O     0.153     0.163     0.199    -0.393
O         O     0.063     0.111     0.731    -0.393
O         O     0.158     0.134     0.490    -0.393
Al2        Al     0.148     0.256     0.106     0.786
Si        Si     0.193     0.102     0.668     0.786
Si        Si     0.096     0.102     0.314     0.786
O         O     0.809     0.336     0.771    -0.393
O         O     0.847     0.163     0.801    -0.393
O         O     0.937     0.111     0.269    -0.393
O         O     0.842     0.134     0.510    -0.393
Si        Si     0.852     0.256     0.894     0.786
Si        Si     0.807     0.102     0.332     0.786
Si        Si     0.904     0.102     0.686     0.786
